
#======================================================================
# CRYSTAL DATA
#----------------------------------------------------------------------
data_VESTA_phase_1

_chemical_name_common                  'Cu8 H56 C88 N8 O48'
_cell_length_a                         16.374001
_cell_length_b                         11.092000
_cell_length_c                         13.607000
_cell_angle_alpha                      90.000000
_cell_angle_beta                       99.102997
_cell_angle_gamma                      90.000000
_cell_volume                           2440.184220
_space_group_name_H-M_alt              'C 2/c'
_space_group_IT_number                 15

loop_
_space_group_symop_operation_xyz
   'x, y, z'
   '-x, -y, -z'
   '-x, y, -z+1/2'
   'x, -y, z+1/2'
   'x+1/2, y+1/2, z'
   '-x+1/2, -y+1/2, -z'
   '-x+1/2, y+1/2, -z+1/2'
   'x+1/2, -y+1/2, z+1/2'

loop_
   _atom_site_label
   _atom_site_occupancy
   _atom_site_fract_x
   _atom_site_fract_y
   _atom_site_fract_z
   _atom_site_adp_type
   _atom_site_U_iso_or_equiv
   _atom_site_type_symbol
   Cu0        1.0     0.172073     0.250468     0.999529    Uiso  ? Cu
   H1         1.0     0.029158     0.090433     0.058786    Uiso  ? H
   H2         1.0     0.030500     0.425761     0.925656    Uiso  ? H
   H3         1.0     0.121944     0.449216     0.582465    Uiso  ? H
   H4         1.0     0.122602     0.093001     0.448970    Uiso  ? H
   H5         1.0     0.151530     0.006843     0.730166    Uiso  ? H
   H6         1.0     0.161768     0.454794     0.272854    Uiso  ? H
   H7         1.0     0.248230     0.131454     0.440845    Uiso  ? H
   C8         1.0     0.005980     0.355663     0.545658    Uiso  ? C
   C9         1.0     0.006917     0.167733     0.473176    Uiso  ? C
   C10        1.0     0.091123     0.367359     0.551435    Uiso  ? C
   C11        1.0     0.092301     0.170520     0.476746    Uiso  ? C
   C12        1.0     0.136362     0.273476     0.515832    Uiso  ? C
   C13        1.0     0.213982     0.041201     0.753238    Uiso  ? C
   C14        1.0     0.224443     0.487656     0.296556    Uiso  ? C
   C15        1.0     0.225194     0.288082     0.520228    Uiso  ? C
   C16        1.0     0.227991     0.118105     0.843199    Uiso  ? C
   C17        1.0     0.236993     0.428092     0.881699    Uiso  ? C
   C18        1.0     0.000000     0.151426     0.750000    Uiso  ? C
   C19        1.0     0.000000     0.329357     0.250000    Uiso  ? C
   N20        1.0     0.036093     0.258475     0.993685    Uiso  ? N
   O21        1.0     0.163084     0.145827     0.879497    Uiso  ? O
   O22        1.0     0.171192     0.393979     0.913279    Uiso  ? O
   O23        1.0     0.189323     0.105630     0.084934    Uiso  ? O
   O24        1.0     0.197805     0.351476     0.122397    Uiso  ? O
   O25        1.0     0.000000     0.045174     0.750000    Uiso  ? O
   O26        1.0     0.000000     0.223623     0.250000    Uiso  ? O
   O27        1.0     0.000000     0.257182     0.750000    Uiso  ? O
   O28        1.0     0.000000     0.435603     0.250000    Uiso  ? O
