
#======================================================================
# CRYSTAL DATA
#----------------------------------------------------------------------
data_VESTA_phase_1

_chemical_name_common                  'Cu4 H28 C40 N4 O16'
_cell_length_a                         13.440000
_cell_length_b                         11.219000
_cell_length_c                         9.253000
_cell_angle_alpha                      90.000000
_cell_angle_beta                       121.095001
_cell_angle_gamma                      90.000000
_cell_volume                           1194.725344
_space_group_name_H-M_alt              'C 2'
_space_group_IT_number                 5

loop_
_space_group_symop_operation_xyz
   'x, y, z'
   '-x, y, -z'
   'x+1/2, y+1/2, z'
   '-x+1/2, y+1/2, -z'

loop_
   _atom_site_label
   _atom_site_occupancy
   _atom_site_fract_x
   _atom_site_fract_y
   _atom_site_fract_z
   _atom_site_adp_type
   _atom_site_U_iso_or_equiv
   _atom_site_type_symbol
   Cu0        1.0     0.070890     0.087448     0.157031    Uiso  ? Cu
   H1         1.0     0.011788     0.543783     0.299157    Uiso  ? H
   H2         1.0     0.074000     0.113486     0.487628    Uiso  ? H
   H3         1.0     0.099813     0.575872     0.964081    Uiso  ? H
   H4         1.0     0.161228     0.550933     0.605310    Uiso  ? H
   H5         1.0     0.163998     0.357264     0.808095    Uiso  ? H
   H6         1.0     0.168318     0.823357     0.808259    Uiso  ? H
   H7         1.0     0.209266     0.104895     0.798518    Uiso  ? H
   C8         1.0     0.058514     0.573574     0.039412    Uiso  ? C
   C9         1.0     0.102427     0.559788     0.339126    Uiso  ? C
   C10        1.0     0.117772     0.243540     0.958373    Uiso  ? C
   C11        1.0     0.122924     0.935531     0.961355    Uiso  ? C
   C12        1.0     0.137985     0.574853     0.221140    Uiso  ? C
   C13        1.0     0.166584     0.097431     0.541094    Uiso  ? C
   C14        1.0     0.185380     0.563940     0.510375    Uiso  ? C
   C15        1.0     0.194303     0.325765     0.935647    Uiso  ? C
   C16        1.0     0.200208     0.856171     0.935653    Uiso  ? C
   C17        1.0     0.242761     0.093143     0.714586    Uiso  ? C
   N18        1.0     0.200979     0.082997     0.429402    Uiso  ? N
   O19        1.0     0.018240     0.945160     0.839139    Uiso  ? O
   O20        1.0     0.040917     0.189550     0.824365    Uiso  ? O
   O21        1.0     0.135102     0.231309     0.106386    Uiso  ? O
   O22        1.0     0.168316     0.989611     0.103467    Uiso  ? O
